Version 4
SHEET 1 1056 680
WIRE 160 -208 160 -304
WIRE 176 -208 160 -208
WIRE 240 -208 240 -304
WIRE 240 -208 224 -208
WIRE 160 -160 112 -160
WIRE 272 -160 240 -160
WIRE 112 -128 112 -160
WIRE -208 -96 -240 -96
WIRE 16 -48 -96 -48
WIRE 32 -48 32 -128
WIRE 32 -48 16 -48
WIRE 64 -48 32 -48
WIRE 112 -48 112 -128
WIRE 160 -48 112 -48
WIRE 272 -48 272 -160
WIRE 272 -48 240 -48
WIRE 320 -48 272 -48
WIRE 432 -48 320 -48
WIRE 544 -48 432 -48
WIRE 656 -48 544 -48
WIRE 768 -48 656 -48
WIRE 864 -48 768 -48
WIRE 1008 -48 864 -48
WIRE -560 0 -560 -96
WIRE -560 0 -672 0
WIRE -544 0 -560 0
WIRE -400 0 -400 -96
WIRE -400 0 -464 0
WIRE -272 0 -400 0
WIRE -240 0 -240 -96
WIRE -240 0 -272 0
WIRE -176 0 -240 0
WIRE 432 0 432 -48
WIRE 544 0 544 -48
WIRE 656 0 656 -48
WIRE 768 0 768 -48
WIRE 864 0 864 -48
WIRE 1008 0 1008 -48
WIRE -560 16 -560 0
WIRE -176 32 -176 0
WIRE -96 32 -96 16
WIRE -96 32 -176 32
WIRE 16 48 16 16
WIRE 16 48 -160 48
WIRE -96 64 -96 32
WIRE 16 64 16 48
WIRE -672 80 -688 80
WIRE -560 80 -672 80
WIRE -544 80 -560 80
WIRE -464 80 -480 80
WIRE -432 80 -464 80
WIRE -304 80 -432 80
WIRE -176 80 -304 80
WIRE -160 80 -160 48
WIRE -160 80 -176 80
WIRE -272 128 -272 0
WIRE -176 128 -176 80
WIRE 16 128 -96 128
WIRE 176 128 16 128
WIRE 224 128 176 128
WIRE 288 128 224 128
WIRE 432 128 432 64
WIRE 432 128 288 128
WIRE 544 128 544 64
WIRE 544 128 432 128
WIRE 656 128 656 64
WIRE 656 128 544 128
WIRE 768 128 768 64
WIRE 768 128 656 128
WIRE 864 128 864 64
WIRE 864 128 768 128
WIRE 944 128 864 128
WIRE 992 128 944 128
WIRE 1008 128 1008 80
WIRE 1008 128 992 128
WIRE 224 144 224 128
WIRE 64 160 64 -48
WIRE 176 160 176 128
WIRE 944 160 944 128
WIRE -432 192 -432 80
WIRE -304 192 -304 80
WIRE -272 192 -304 192
WIRE -560 224 -560 80
WIRE -560 224 -672 224
WIRE -208 224 -208 -32
WIRE -208 224 -560 224
WIRE -176 224 -176 192
WIRE -176 224 -208 224
WIRE -80 224 -176 224
WIRE 64 224 -80 224
WIRE 176 224 64 224
WIRE 288 224 288 208
WIRE 288 224 176 224
FLAG -80 224 0
FLAG 320 32 0
FLAG 992 128 COM
SYMBOL diode -80 16 R180
WINDOW 0 24 64 Left 2
WINDOW 3 24 0 Left 2
SYMATTR InstName D1
SYMBOL diode 32 16 R180
WINDOW 0 24 64 Left 2
WINDOW 3 24 0 Left 2
SYMATTR InstName D2
SYMBOL diode -80 128 R180
WINDOW 0 24 64 Left 2
WINDOW 3 24 0 Left 2
SYMATTR InstName D3
SYMBOL diode 32 128 R180
WINDOW 0 24 64 Left 2
WINDOW 3 24 0 Left 2
SYMATTR InstName D4
SYMBOL polcap 640 0 R0
WINDOW 3 24 56 Left 2
SYMATTR Value 470µ
SYMATTR InstName C1
SYMATTR Description Capacitor
SYMATTR Type cap
SYMATTR SpiceLine V=450 Irms=2.89 Rser=0.082 Lser=10.1n mfg="Würth Elektronik" pn="861011487026 WCAP-AIG8 40x42" type="Al electrolytic"
SYMBOL polcap 752 0 R0
WINDOW 3 24 56 Left 2
SYMATTR Value 470µ
SYMATTR InstName C2
SYMATTR Description Capacitor
SYMATTR Type cap
SYMATTR SpiceLine V=450 Irms=2.89 Rser=0.082 Lser=10.1n mfg="Würth Elektronik" pn="861011487026 WCAP-AIG8 40x42" type="Al electrolytic"
SYMBOL cap 848 0 R0
SYMATTR InstName C3
SYMATTR Value 4.7µ
SYMATTR SpiceLine V=1K Irms=0 Rser=0.0227 Lser=99n mfg="Würth Elektronik" pn="890493428013CS WCAP-FTBE 37.5 x 42 x 43 x 31" type="Box"
SYMBOL voltage -672 -16 R0
WINDOW 3 -218 50 Left 2
WINDOW 123 0 0 Left 0
WINDOW 39 -218 78 Left 2
SYMATTR Value SINE(0 320 50)
SYMATTR SpiceLine Rser=0.0001
SYMATTR InstName V1
SYMBOL current 1008 80 R180
WINDOW 123 0 0 Left 0
WINDOW 39 0 0 Left 0
SYMATTR InstName I1
SYMATTR Value PULSE(0 -4 1100m 1m 1m 400m)
SYMBOL res 256 -64 R90
WINDOW 0 0 56 VBottom 2
WINDOW 3 32 56 VTop 2
SYMATTR InstName R1
SYMATTR Value 47
SYMBOL cap -288 128 R0
SYMATTR InstName C5
SYMATTR Value 470n
SYMATTR SpiceLine V=630 Irms=0 Rser=0.065 Lser=7.8n
SYMBOL cap 48 160 R0
SYMATTR InstName C7
SYMATTR Value 0.047µ
SYMATTR SpiceLine V=630 Irms=0 Rser=0.065 Lser=7.8n mfg="Würth Elektronik" pn="890324023015 WCAP-FTX2 10x13x9.5x4.5" type="X2"
SYMBOL cap 160 160 R0
SYMATTR InstName C8
SYMATTR Value 0.047µ
SYMATTR SpiceLine V=630 Irms=0 Rser=0.065 Lser=7.8n mfg="Würth Elektronik" pn="890324023015 WCAP-FTX2 10x13x9.5x4.5" type="X2"
SYMBOL sw 256 -160 R90
SYMATTR InstName S1
SYMATTR Value MYSW
SYMBOL voltage 144 -304 R270
WINDOW 0 32 56 VTop 2
WINDOW 3 -32 56 VBottom 2
WINDOW 123 0 0 Left 0
WINDOW 39 0 0 Left 0
SYMATTR InstName V2
SYMATTR Value PULSE(0 3 900m 1m 1m 1)
SYMBOL ind2 -560 16 R270
WINDOW 0 32 56 VTop 2
WINDOW 3 5 56 VBottom 2
SYMATTR InstName L2
SYMATTR Value 4.7m
SYMATTR SpiceLine Ipk=16 Rser=22m
SYMATTR Type ind
SYMBOL ind2 -560 96 R270
WINDOW 0 32 56 VTop 2
WINDOW 3 5 56 VBottom 2
SYMATTR InstName L3
SYMATTR Value 4.7m
SYMATTR SpiceLine Ipk=8 Rser=22m
SYMATTR Type ind
SYMBOL cap -224 -96 R0
SYMATTR InstName C9
SYMATTR Value 4.7n
SYMBOL cap -192 128 R0
SYMATTR InstName C10
SYMATTR Value 4.7n
SYMBOL res 272 112 R0
SYMATTR InstName R2
SYMATTR Value 1G
SYMBOL res 304 -64 R0
SYMATTR InstName R3
SYMATTR Value 1G
SYMBOL ind 16 -112 R270
WINDOW 0 32 56 VTop 2
WINDOW 3 5 56 VBottom 2
SYMATTR InstName L1
SYMATTR Value 4.7m
SYMATTR SpiceLine Rser=80m
TEXT -416 152 Left 2 !.tran 2s
TEXT 256 -256 Left 2 !.model MYSW SW(Ron=0.05 Roff=1Meg Vt=.5 Vh=-.4)
TEXT -800 -176 Left 2 !K1 L2 L3 0.95
